3dpf_ligand
  -I-interpret- 

 59 64  0  0  0  0  0  0  0  0999 V2000
   14.4250   31.5970   19.1950 N   0  0  0  0  0
   13.6030   32.5630   18.7920 C   0  0  0  0  0
   13.5700   34.0500   18.9400 C   0  0  0  0  0
   14.3200   34.9200   19.5000 O   0  0  0  0  0
   12.2770   34.0960   18.2040 C   0  0  0  0  0
   11.4860   34.9530   17.8120 O   0  0  0  0  0
   12.4120   32.5790   18.0690 C   0  0  0  0  0
   11.6950   31.6480   17.4430 N   0  3  0  0  0
   10.2810   32.0410   17.3450 C   0  0  0  0  0
    9.6220   31.2170   16.2360 C   0  0  0  0  0
   11.7980   30.3360   18.1000 C   0  0  0  0  0
   11.0160   29.3360   17.2460 C   0  0  0  0  0
   11.3470   27.9880   17.3260 C   0  0  0  0  0
   10.0000   29.7430   16.3870 C   0  0  0  0  0
    9.3250   28.8000   15.6210 C   0  0  0  0  0
    9.6570   27.4510   15.7010 C   0  0  0  0  0
   10.6730   27.0460   16.5580 C   0  0  0  0  0
   11.0650   25.5700   16.6760 C   0  0  0  0  0
   10.3380   24.7390   15.7050 N   0  0  0  0  0
   10.6780   24.6720   14.4210 C   0  0  0  0  0
   11.5960   25.3120   13.9100 O   0  0  0  0  0
    9.8050   23.7350   13.5850 C   0  0  0  0  0
    8.8330   23.0350   14.1850 N   0  0  0  0  0
    8.0330   22.2130   13.4920 C   0  0  0  0  0
    6.7280   21.2280   13.9980 S   0  0  0  0  0
    6.3350   20.5850   12.4610 C   0  0  0  0  0
    5.2300   19.5690   12.1590 C   0  0  0  0  0
    4.8970   19.4910   10.3640 S   0  0  0  0  0
    4.2750   18.1710   10.0130 O   0  0  0  0  0
    3.9910   20.6210    9.9730 O   0  0  0  0  0
    6.5350   19.6650    9.5730 C   0  0  0  0  0
    7.2010   20.9640   10.0320 C   0  0  0  0  0
    7.2310   21.1560   11.5530 C   0  0  0  0  0
    8.1590   22.0360   12.1160 C   0  0  0  0  0
    9.1670   22.7510   11.4770 C   0  0  0  0  0
    9.3390   22.6390   10.2640 O   0  0  0  0  0
   10.0000   23.6080   12.2060 N   0  0  0  0  0
   14.2171   30.6239   18.9707 H   0  0  0  0  0
   11.7703   31.7868   17.6833 H   0  0  0  0  0
   12.0847   31.5657   16.5040 H   0  0  0  0  0
   10.2059   33.1034   17.1131 H   0  0  0  0  0
    9.7775   31.8566   18.2940 H   0  0  0  0  0
    9.9661   31.5786   15.2670 H   0  0  0  0  0
    8.5392   31.3193   16.3076 H   0  0  0  0  0
   11.3882   30.3801   19.1091 H   0  0  0  0  0
   12.8412   30.0321   18.1862 H   0  0  0  0  0
   12.1430   27.6668   17.9978 H   0  0  0  0  0
    8.5274   29.1204   14.9507 H   0  0  0  0  0
    9.1241   26.7175   15.0959 H   0  0  0  0  0
   10.8152   25.2260   17.6797 H   0  0  0  0  0
   12.1327   25.4797   16.4761 H   0  0  0  0  0
    9.5406   24.1918   16.0293 H   0  0  0  0  0
    4.3192   19.8758   12.6733 H   0  0  0  0  0
    5.5528   18.5855   12.5005 H   0  0  0  0  0
    6.4103   19.6885    8.4904 H   0  0  0  0  0
    7.1624   18.8200    9.8568 H   0  0  0  0  0
    6.6187   21.7866    9.6168 H   0  0  0  0  0
    8.2364   20.9302    9.6930 H   0  0  0  0  0
   10.7390   24.1326   11.7378 H   0  0  0  0  0
  1  2  2  0  0  0
  2  3  1  0  0  0
  2  7  1  0  0  0
  3  4  2  0  0  0
  3  5  1  0  0  0
  5  6  2  0  0  0
  5  7  1  0  0  0
  7  8  1  0  0  0
  8  9  1  0  0  0
  8 11  1  0  0  0
  9 10  1  0  0  0
 10 14  1  0  0  0
 11 12  1  0  0  0
 12 13  4  0  0  0
 12 14  4  0  0  0
 13 17  4  0  0  0
 14 15  4  0  0  0
 15 16  4  0  0  0
 16 17  4  0  0  0
 17 18  1  0  0  0
 18 19  1  0  0  0
 19 20  1  0  0  0
 20 21  2  0  0  0
 20 22  1  0  0  0
 22 23  2  0  0  0
 22 37  1  0  0  0
 23 24  1  0  0  0
 24 25  4  0  0  0
 24 34  4  0  0  0
 25 26  4  0  0  0
 26 27  1  0  0  0
 26 33  4  0  0  0
 27 28  1  0  0  0
 28 29  2  0  0  0
 28 30  2  0  0  0
 28 31  1  0  0  0
 31 32  1  0  0  0
 32 33  1  0  0  0
 33 34  4  0  0  0
 34 35  1  0  0  0
 35 36  2  0  0  0
 35 37  1  0  0  0
  1 38  1  0  0  0
  7 39  1  0  0  0
  8 40  1  0  0  0
  9 41  1  0  0  0
  9 42  1  0  0  0
 10 43  1  0  0  0
 10 44  1  0  0  0
 11 45  1  0  0  0
 11 46  1  0  0  0
 13 47  1  0  0  0
 15 48  1  0  0  0
 16 49  1  0  0  0
 18 50  1  0  0  0
 18 51  1  0  0  0
 19 52  1  0  0  0
 27 53  1  0  0  0
 27 54  1  0  0  0
 31 55  1  0  0  0
 31 56  1  0  0  0
 32 57  1  0  0  0
 32 58  1  0  0  0
 37 59  1  0  0  0
M  END
$$$$
